/*--------------------------------*- C++ -*----------------------------------*\
| =========                 |                                                 |
| \\      /  F ield         | OpenFOAM: The Open Source CFD Toolbox           |
|  \\    /   O peration     | Version:  v2512                                 |
|   \\  /    A nd           | Website:  www.openfoam.com                      |
|    \\/     M anipulation  |                                                 |
\*---------------------------------------------------------------------------*/

FoamFile
{
    version     2.0;
    format      ascii;
    class       dictionary;
    location    "constant";
    object      reactions;
}

// * * * * * * * * * * * * * * * * * * * * * * * * * * * * * * * * * * * * * //

species
(
    H2O
    H2
    O2
    Hplus
    OHminus
);

inertSpecie H2O;

FaradayConstant 96485.3329;

diffusivity 
{
    H2O     2.3e-9;
    H2      4.5e-9;
    O2      2.0e-9;
    OHminus 5.3e-9;
    Hplus   9.3e-9;
}   

molarMass 
{
    H2O     0.01801528;
    H2      0.00201588;
    O2      0.0319988;
    OHminus 0.01700734;
    Hplus   0.00100794;
}   

reactions
{
}

// ************************************************************************* //