FoamFile
{
    version     2.0;
    format      ascii;
    class       dictionary;
    object      blockMeshDict;
}

scale 1;

vertices
(
    // left half
    (0     0     0)
    (0.05  0     0)
    (0.05  0.0025 0)
    (0     0.0025 0)

    (0     0     0.1)
    (0.05  0     0.1)
    (0.05  0.0025 0.1)
    (0     0.0025 0.1)

    // right half 
    (0     0.0025 0)
    (0.05  0.0025 0)
    (0.05  0.005  0)
    (0     0.005  0)

    (0     0.0025 0.1)
    (0.05  0.0025 0.1)
    (0.05  0.005  0.1)
    (0     0.005  0.1)
);

blocks
(
    hex (0 1 2 3 4 5 6 7) (40 20 100) simpleGrading (1 5 1)
    hex (8 9 10 11 12 13 14 15) (40 20 100) simpleGrading (1 -5 1)
);

edges
(
);

boundary
(
    inlet
    {
        type patch;
        faces
        (
            (0 1 2 3)   // z = 0
            (8 9 10 11)   // z = 0
        );
    }

    outlet
    {
        type patch;
        faces
        (
            (4 7 6 5)   // z = 0.1
            (12 15 14 13)   // z = 0.1
        );
    }

    cathode
    {
        type wall;
        faces
        (
            (0 4 5 1)   // y = 0

        );
    }

    anode
    {
        type wall;
        faces
        (

            (11 10 14 15)   // y = 0.01
        );
    }

    wall
    {
        type wall;
        faces
        (
            (0 3 7 4)   // x = 0
            (1 5 6 2)   // x = 0.04
            (8 11 15 12)   // x = 0
            (9 13 14 10)   // x = 0.04
        );
    }
);
mergePatchPairs
(
);
