FoamFile
{
    version     2.0;
    format      ascii;
    class       dictionary;
    object      blockMeshDict;
}

scale 1;

vertices
(
    (0     0     0)
    (0.04  0     0)
    (0.04  0.01  0)
    (0     0.01  0)

    (0     0     0.1)
    (0.04  0     0.1)
    (0.04  0.01  0.1)
    (0     0.01  0.1)
);

blocks
(
    hex (0 1 2 3 4 5 6 7) (40 10 100) simpleGrading (1 1 1)
);

edges
(
);

boundary
(
    inlet
    {
        type patch;
        faces
        (
            (0 1 2 3)   // z = 0
        );
    }

    outlet
    {
        type patch;
        faces
        (
            (4 7 6 5)   // z = 0.1
        );
    }

    cathode
    {
        type wall;
        faces
        (
            (0 4 5 1)   // y = 0
        );
    }

    anode
    {
        type wall;
        faces
        (
            (3 2 6 7)   // y = 0.01
        );
    }

    wall
    {
        type wall;
        faces
        (
            (0 3 7 4)   // x = 0
            (1 5 6 2)   // x = 0.04
        );
    }
);
mergePatchPairs
(
);
