FoamFile
{
    version     2.0;
    format      ascii;
    class       volScalarField;
    object      Acetate;
}

dimensions      [0 -3 0 0 1 0 0];

internalField   uniform 0;

boundaryField
{
    inlet
    {
        type            fixedValue;
        value           uniform 0;
    }

    outlet
    {
        type            zeroGradient;
    }

    wall
    {
        type            zeroGradient;
    }

    cathode
    {
        type            zeroGradient;
    }

    anode
    {
        type            zeroGradient;
    }
}
