FoamFile
{
    version     2.0;
    format      ascii;
    class       volScalarField;
    object      O2;
}

dimensions      [0 0 0 0 0 0 0];

internalField   uniform 0;

boundaryField
{
    inlet
    {
        type            fixedValue;
        value           uniform 0;
    }

    outlet
    {
        type            zeroGradient;
    }

    wall
    {
        type            zeroGradient;
    }

    cathode
    {
        type            zeroGradient;
    }
    
    anode
    {
        type            faradaicMoleFractionFlux;
        stoichCoeff     1;
        nElectrons      4;
        currentDensity  10000;
        value           uniform 0;
    }
}
