FoamFile
{
    version     2.0;
    format      ascii;
    class       volScalarField;
    object      OHminus;
}

dimensions      [0 0 0 0 0 0 0];

internalField   uniform 0;

boundaryField
{
    inlet
    {
        type            fixedValue;
        value           uniform 0;
    }

    outlet
    {
        type            zeroGradient;
    }

    wall
    {
        type            zeroGradient;
    }

    cathode
    {
        type            faradaicMoleFractionFlux;
        stoichCoeff     2;
        nElectrons      2;
        currentDensity  5e3;
        value           uniform 0;
    }

    anode
    {
        type            zeroGradient;
    }
}
